[General]
description = "(abstract)"

# Configurator settings
*.configurator.dumpAddresses = true
*.configurator.dumpTopology = true
*.configurator.dumpLinks = true
*.configurator.dumpRoutes = true

# Routing settings
*.*.ipv4.arp.typename = "GlobalArp"
*.*.ipv4.routingTable.netmaskRoutes = ""

# Visualizer settings
*.visualizer.interfaceTableVisualizer.displayInterfaceTables = true
*.visualizer.interfaceTableVisualizer.nodeFilter = "not (*switch* or *Switch* or *AP*)"


[Config Step12]
sim-time-limit = 100s
network = ConfiguratorE
description = "Mixing different kinds of autorouting"

# Configurator settings
*.configurator.config = xmldoc("step12.xml")
*.configurator.optimizeRoutes = false             #! TODO! különben nem működik -> ezért kell

# Wireless node settings
*.*.wlan[*].bitrate = 54Mbps
*.*.wlan[*].radio.transmitter.power = 1mW
*.area1host*.forwarding = true
*.area1*.wlan[*].mgmt.typename = "Ieee80211MgmtAdhoc"
*.area1*.wlan[*].agent.typename = ""

# pingApp settings
*.area1host1.numApps = 1
*.area1host1.app[0].typename = "PingApp"
*.area1host1.app[*].destAddr = "area2host1"

# Visualizer settings
*.visualizer.mediumVisualizer.displayCommunicationRanges = true
*.visualizer.routingTableVisualizer.displayRoutingTables = true
*.visualizer.routingTableVisualizer.displayRoutesIndividually = false
*.visualizer.routingTableVisualizer.displayLabels = false
*.visualizer.routingTableVisualizer.lineShift = 0
*.visualizer.routingTableVisualizer.destinationFilter = "*"

######################################################################################################
